 INFO
nunit      1    1    1
unit   cell
celltype   convcell
shape   parapipedal
 END_INFO
 DIM-GROUP
           3           1
 PRIMVEC
    6.4954846890    0.0000000000    0.0000000000
   -3.2477423440    5.6252521270    0.0000000000
    0.0000000000    0.0000000000   20.0000000760
 CONVVEC
    6.4954846890    0.0000000000    0.0000000000
   -3.2477423440    5.6252521270    0.0000000000
    0.0000000000    0.0000000000   20.0000000760
 PRIMCOORD
          12           1
 42     -0.0000000000     1.9654167890     3.2062706060     0.0000000000     0.0005371700    -0.0001533500
 42     -1.5456413760     4.6425461050     3.2062706060     0.0004652100    -0.0002685900    -0.0001533500
 42      3.2477420000     1.8750850000     3.2005689500     0.0000000000     0.0000000000    -0.0000388100
 42      1.5456413760     4.6425461050     3.2062706060    -0.0004652100    -0.0002685900    -0.0001533500
 34      1.6259276330     0.9387293970     4.8582630860    -0.0002231800    -0.0001288500    -0.0000496700
  9     -0.0000000000     3.7501690000     4.5659156730     0.0000000000    -0.0000000000     0.0005614500
 34      4.8695563670     0.9387293970     4.8582630860     0.0002231800    -0.0001288500    -0.0000496700
 34      3.2477420000     3.7477942050     4.8582630860     0.0000000000     0.0002577000    -0.0000496700
 34      1.5820511930     0.9133973230     1.5913909850    -0.0005015200    -0.0002895500     0.0000591300
 34     -0.0000000000     3.7501690000     1.4726373450     0.0000000000     0.0000000000    -0.0000909900
 34      4.9134328070     0.9133973230     1.5913909850     0.0005015200    -0.0002895500     0.0000591300
 34      3.2477420000     3.7984583530     1.5913909850     0.0000000000     0.0005791000     0.0000591300
 CONVCOORD
          12           1
 42      0.0000000000     1.9654167890     3.2062706060
 42     -1.5456413760     4.6425461050     3.2062706060
 42      3.2477420000     1.8750850000     3.2005689500
 42      1.5456413760     4.6425461050     3.2062706060
 34      1.6259276330     0.9387293970     4.8582630860
  9      0.0000000000     3.7501690000     4.5659156730
 34      4.8695563670     0.9387293970     4.8582630860
 34      3.2477420000     3.7477942050     4.8582630860
 34      1.5820511930     0.9133973230     1.5913909850
 34      0.0000000000     3.7501690000     1.4726373450
 34      4.9134328070     0.9133973230     1.5913909850
 34      3.2477420000     3.7984583530     1.5913909850
 RECIP-PRIMVEC
    0.1539530994    0.0888849048   -0.0000000000

    0.0000000000    0.1777698097    0.0000000000

    0.0000000000   -0.0000000000    0.0499999998

 RECIP-CONVVEC
    0.1539530994    0.0888849048   -0.0000000000

    0.0000000000    0.1777698097    0.0000000000

    0.0000000000   -0.0000000000    0.0499999998

 WIGNER-SEITZ-PRIMCELL
           4
 -0.3247742E+01 -0.1875083E+01 -0.1000000E+02  -0.5000002E+00 -0.8660253E+00  0.1657858E-15
 -0.5000004E-09 -0.3750169E+01 -0.1000000E+02  -0.5000002E+00 -0.8660253E+00  0.1657858E-15
 -0.5000004E-09 -0.3750169E+01  0.1000000E+02  -0.5000002E+00 -0.8660253E+00  0.1657858E-15
 -0.3247742E+01 -0.1875083E+01  0.1000000E+02  -0.5000002E+00 -0.8660253E+00  0.1657858E-15
           4
 -0.3247742E+01  0.1875083E+01  0.1000000E+02  -0.1000000E+01  0.0000000E+00  0.0000000E+00
 -0.3247742E+01  0.1875083E+01 -0.1000000E+02  -0.1000000E+01  0.0000000E+00  0.0000000E+00
 -0.3247742E+01 -0.1875083E+01 -0.1000000E+02  -0.1000000E+01  0.0000000E+00  0.0000000E+00
 -0.3247742E+01 -0.1875083E+01  0.1000000E+02  -0.1000000E+01  0.0000000E+00  0.0000000E+00
           4
 -0.5000054E-09 -0.3750169E+01  0.1000000E+02   0.5000002E+00 -0.8660253E+00  0.7105105E-16
 -0.5000004E-09 -0.3750169E+01 -0.1000000E+02   0.5000002E+00 -0.8660253E+00  0.7105105E-16
  0.3247742E+01 -0.1875083E+01 -0.1000000E+02   0.5000002E+00 -0.8660253E+00  0.7105105E-16
  0.3247742E+01 -0.1875083E+01  0.1000000E+02   0.5000002E+00 -0.8660253E+00  0.7105105E-16
           6
 -0.3247742E+01 -0.1875083E+01 -0.1000000E+02   0.5833888E-15  0.0000000E+00 -0.1000000E+01
 -0.3247742E+01  0.1875083E+01 -0.1000000E+02   0.5833888E-15  0.0000000E+00 -0.1000000E+01
  0.4999998E-09  0.3750169E+01 -0.1000000E+02   0.5833888E-15  0.0000000E+00 -0.1000000E+01
  0.3247742E+01  0.1875083E+01 -0.1000000E+02   0.5833888E-15  0.0000000E+00 -0.1000000E+01
  0.3247742E+01 -0.1875083E+01 -0.1000000E+02   0.5833888E-15  0.0000000E+00 -0.1000000E+01
 -0.5000004E-09 -0.3750169E+01 -0.1000000E+02   0.5833888E-15  0.0000000E+00 -0.1000000E+01
           6
 -0.5000103E-09 -0.3750169E+01  0.1000000E+02  -0.0000000E+00 -0.0000000E+00  0.1000000E+01
  0.3247742E+01 -0.1875083E+01  0.1000000E+02  -0.0000000E+00 -0.0000000E+00  0.1000000E+01
  0.3247742E+01  0.1875083E+01  0.1000000E+02  -0.0000000E+00 -0.0000000E+00  0.1000000E+01
  0.5000054E-09  0.3750169E+01  0.1000000E+02  -0.0000000E+00 -0.0000000E+00  0.1000000E+01
 -0.3247742E+01  0.1875083E+01  0.1000000E+02  -0.0000000E+00 -0.0000000E+00  0.1000000E+01
 -0.3247742E+01 -0.1875083E+01  0.1000000E+02  -0.0000000E+00 -0.0000000E+00  0.1000000E+01
           4
  0.4999998E-09  0.3750169E+01  0.1000000E+02  -0.5000002E+00  0.8660253E+00 -0.8289289E-16
  0.5000004E-09  0.3750169E+01 -0.1000000E+02  -0.5000002E+00  0.8660253E+00 -0.8289289E-16
 -0.3247742E+01  0.1875083E+01 -0.1000000E+02  -0.5000002E+00  0.8660253E+00 -0.8289289E-16
 -0.3247742E+01  0.1875083E+01  0.1000000E+02  -0.5000002E+00  0.8660253E+00 -0.8289289E-16
           4
  0.3247742E+01 -0.1875083E+01 -0.1000000E+02   0.1000000E+01 -0.1184185E-15  0.2220446E-16
  0.3247742E+01  0.1875083E+01 -0.1000000E+02   0.1000000E+01 -0.1184185E-15  0.2220446E-16
  0.3247742E+01  0.1875083E+01  0.1000000E+02   0.1000000E+01 -0.1184185E-15  0.2220446E-16
  0.3247742E+01 -0.1875083E+01  0.1000000E+02   0.1000000E+01 -0.1184185E-15  0.2220446E-16
           4
  0.3247742E+01  0.1875083E+01  0.1000000E+02   0.5000002E+00  0.8660253E+00 -0.4736736E-16
  0.3247742E+01  0.1875083E+01 -0.1000000E+02   0.5000002E+00  0.8660253E+00 -0.4736736E-16
  0.5000004E-09  0.3750169E+01 -0.1000000E+02   0.5000002E+00  0.8660253E+00 -0.4736736E-16
  0.4999998E-09  0.3750169E+01  0.1000000E+02   0.5000002E+00  0.8660253E+00 -0.4736736E-16
 WIGNER-SEITZ-PRIMCELL_END
 WIGNER-SEITZ-CONVCELL
           4
 -0.3247742E+01 -0.1875083E+01 -0.1000000E+02  -0.5000002E+00 -0.8660253E+00  0.1657858E-15
 -0.5000004E-09 -0.3750169E+01 -0.1000000E+02  -0.5000002E+00 -0.8660253E+00  0.1657858E-15
 -0.5000004E-09 -0.3750169E+01  0.1000000E+02  -0.5000002E+00 -0.8660253E+00  0.1657858E-15
 -0.3247742E+01 -0.1875083E+01  0.1000000E+02  -0.5000002E+00 -0.8660253E+00  0.1657858E-15
           4
 -0.3247742E+01  0.1875083E+01  0.1000000E+02  -0.1000000E+01  0.0000000E+00  0.0000000E+00
 -0.3247742E+01  0.1875083E+01 -0.1000000E+02  -0.1000000E+01  0.0000000E+00  0.0000000E+00
 -0.3247742E+01 -0.1875083E+01 -0.1000000E+02  -0.1000000E+01  0.0000000E+00  0.0000000E+00
 -0.3247742E+01 -0.1875083E+01  0.1000000E+02  -0.1000000E+01  0.0000000E+00  0.0000000E+00
           4
 -0.5000054E-09 -0.3750169E+01  0.1000000E+02   0.5000002E+00 -0.8660253E+00  0.7105105E-16
 -0.5000004E-09 -0.3750169E+01 -0.1000000E+02   0.5000002E+00 -0.8660253E+00  0.7105105E-16
  0.3247742E+01 -0.1875083E+01 -0.1000000E+02   0.5000002E+00 -0.8660253E+00  0.7105105E-16
  0.3247742E+01 -0.1875083E+01  0.1000000E+02   0.5000002E+00 -0.8660253E+00  0.7105105E-16
           6
 -0.3247742E+01 -0.1875083E+01 -0.1000000E+02   0.5833888E-15  0.0000000E+00 -0.1000000E+01
 -0.3247742E+01  0.1875083E+01 -0.1000000E+02   0.5833888E-15  0.0000000E+00 -0.1000000E+01
  0.4999998E-09  0.3750169E+01 -0.1000000E+02   0.5833888E-15  0.0000000E+00 -0.1000000E+01
  0.3247742E+01  0.1875083E+01 -0.1000000E+02   0.5833888E-15  0.0000000E+00 -0.1000000E+01
  0.3247742E+01 -0.1875083E+01 -0.1000000E+02   0.5833888E-15  0.0000000E+00 -0.1000000E+01
 -0.5000004E-09 -0.3750169E+01 -0.1000000E+02   0.5833888E-15  0.0000000E+00 -0.1000000E+01
           6
 -0.5000103E-09 -0.3750169E+01  0.1000000E+02  -0.0000000E+00 -0.0000000E+00  0.1000000E+01
  0.3247742E+01 -0.1875083E+01  0.1000000E+02  -0.0000000E+00 -0.0000000E+00  0.1000000E+01
  0.3247742E+01  0.1875083E+01  0.1000000E+02  -0.0000000E+00 -0.0000000E+00  0.1000000E+01
  0.5000054E-09  0.3750169E+01  0.1000000E+02  -0.0000000E+00 -0.0000000E+00  0.1000000E+01
 -0.3247742E+01  0.1875083E+01  0.1000000E+02  -0.0000000E+00 -0.0000000E+00  0.1000000E+01
 -0.3247742E+01 -0.1875083E+01  0.1000000E+02  -0.0000000E+00 -0.0000000E+00  0.1000000E+01
           4
  0.4999998E-09  0.3750169E+01  0.1000000E+02  -0.5000002E+00  0.8660253E+00 -0.8289289E-16
  0.5000004E-09  0.3750169E+01 -0.1000000E+02  -0.5000002E+00  0.8660253E+00 -0.8289289E-16
 -0.3247742E+01  0.1875083E+01 -0.1000000E+02  -0.5000002E+00  0.8660253E+00 -0.8289289E-16
 -0.3247742E+01  0.1875083E+01  0.1000000E+02  -0.5000002E+00  0.8660253E+00 -0.8289289E-16
           4
  0.3247742E+01 -0.1875083E+01 -0.1000000E+02   0.1000000E+01 -0.1184185E-15  0.2220446E-16
  0.3247742E+01  0.1875083E+01 -0.1000000E+02   0.1000000E+01 -0.1184185E-15  0.2220446E-16
  0.3247742E+01  0.1875083E+01  0.1000000E+02   0.1000000E+01 -0.1184185E-15  0.2220446E-16
  0.3247742E+01 -0.1875083E+01  0.1000000E+02   0.1000000E+01 -0.1184185E-15  0.2220446E-16
           4
  0.3247742E+01  0.1875083E+01  0.1000000E+02   0.5000002E+00  0.8660253E+00 -0.4736736E-16
  0.3247742E+01  0.1875083E+01 -0.1000000E+02   0.5000002E+00  0.8660253E+00 -0.4736736E-16
  0.5000004E-09  0.3750169E+01 -0.1000000E+02   0.5000002E+00  0.8660253E+00 -0.4736736E-16
  0.4999998E-09  0.3750169E+01  0.1000000E+02   0.5000002E+00  0.8660253E+00 -0.4736736E-16
 WIGNER-SEITZ-CONVCELL_END
 BRILLOUIN-ZONE-PRIMCELL
           4
 -0.1026354E+00  0.1368410E-10 -0.2500000E-01  -0.8660253E+00 -0.5000002E+00  0.1690179E-15
 -0.5131768E-01 -0.8888490E-01 -0.2500000E-01  -0.8660253E+00 -0.5000002E+00  0.1690179E-15
 -0.5131768E-01 -0.8888490E-01  0.2500000E-01  -0.8660253E+00 -0.5000002E+00  0.1690179E-15
 -0.1026354E+00  0.1368410E-10  0.2500000E-01  -0.8660253E+00 -0.5000002E+00  0.1690179E-15
           4
 -0.1026354E+00  0.1368410E-10  0.2500000E-01  -0.8660253E+00  0.5000002E+00 -0.3380359E-15
 -0.5131768E-01  0.8888490E-01  0.2500000E-01  -0.8660253E+00  0.5000002E+00 -0.3380359E-15
 -0.5131768E-01  0.8888490E-01 -0.2500000E-01  -0.8660253E+00  0.5000002E+00 -0.3380359E-15
 -0.1026354E+00  0.1368410E-10 -0.2500000E-01  -0.8660253E+00  0.5000002E+00 -0.3380359E-15
           4
 -0.5131768E-01 -0.8888490E-01 -0.2500000E-01  -0.7505913E-31 -0.1000000E+01  0.6760725E-15
  0.5131768E-01 -0.8888490E-01 -0.2500000E-01  -0.7505913E-31 -0.1000000E+01  0.6760725E-15
  0.5131768E-01 -0.8888490E-01  0.2500000E-01  -0.7505913E-31 -0.1000000E+01  0.6760725E-15
 -0.5131768E-01 -0.8888490E-01  0.2500000E-01  -0.7505913E-31 -0.1000000E+01  0.6760725E-15
           6
 -0.1026354E+00  0.1368410E-10 -0.2500000E-01   0.0000000E+00 -0.1188462E-15 -0.1000000E+01
 -0.5131768E-01  0.8888490E-01 -0.2500000E-01   0.0000000E+00 -0.1188462E-15 -0.1000000E+01
  0.5131768E-01  0.8888490E-01 -0.2500000E-01   0.0000000E+00 -0.1188462E-15 -0.1000000E+01
  0.1026354E+00 -0.1368410E-10 -0.2500000E-01   0.0000000E+00 -0.1188462E-15 -0.1000000E+01
  0.5131768E-01 -0.8888490E-01 -0.2500000E-01   0.0000000E+00 -0.1188462E-15 -0.1000000E+01
 -0.5131768E-01 -0.8888490E-01 -0.2500000E-01   0.0000000E+00 -0.1188462E-15 -0.1000000E+01
           6
 -0.5131768E-01 -0.8888490E-01  0.2500000E-01  -0.0000000E+00 -0.4753848E-16  0.1000000E+01
  0.5131768E-01 -0.8888490E-01  0.2500000E-01  -0.0000000E+00 -0.4753848E-16  0.1000000E+01
  0.1026354E+00 -0.1368409E-10  0.2500000E-01  -0.0000000E+00 -0.4753848E-16  0.1000000E+01
  0.5131768E-01  0.8888490E-01  0.2500000E-01  -0.0000000E+00 -0.4753848E-16  0.1000000E+01
 -0.5131768E-01  0.8888490E-01  0.2500000E-01  -0.0000000E+00 -0.4753848E-16  0.1000000E+01
 -0.1026354E+00  0.1368410E-10  0.2500000E-01  -0.0000000E+00 -0.4753848E-16  0.1000000E+01
           4
 -0.5131768E-01  0.8888490E-01  0.2500000E-01  -0.2704290E-15  0.1000000E+01  0.6535529E-15
  0.5131768E-01  0.8888490E-01  0.2500000E-01  -0.2704290E-15  0.1000000E+01  0.6535529E-15
  0.5131768E-01  0.8888490E-01 -0.2500000E-01  -0.2704290E-15  0.1000000E+01  0.6535529E-15
 -0.5131768E-01  0.8888490E-01 -0.2500000E-01  -0.2704290E-15  0.1000000E+01  0.6535529E-15
           4
  0.5131768E-01 -0.8888490E-01 -0.2500000E-01   0.8660253E+00 -0.5000002E+00  0.2403703E-15
  0.1026354E+00 -0.1368410E-10 -0.2500000E-01   0.8660253E+00 -0.5000002E+00  0.2403703E-15
  0.1026354E+00 -0.1368410E-10  0.2500000E-01   0.8660253E+00 -0.5000002E+00  0.2403703E-15
  0.5131768E-01 -0.8888490E-01  0.2500000E-01   0.8660253E+00 -0.5000002E+00  0.2403703E-15
           4
  0.5131768E-01  0.8888490E-01  0.2500000E-01   0.8660253E+00  0.5000002E+00  0.7211109E-15
  0.1026354E+00 -0.1368410E-10  0.2500000E-01   0.8660253E+00  0.5000002E+00  0.7211109E-15
  0.1026354E+00 -0.1368410E-10 -0.2500000E-01   0.8660253E+00  0.5000002E+00  0.7211109E-15
  0.5131768E-01  0.8888490E-01 -0.2500000E-01   0.8660253E+00  0.5000002E+00  0.7211109E-15
 BRILLOUIN-ZONE-PRIMCELL_END
 BRILLOUIN-ZONE-CONVCELL
           4
 -0.1026354E+00  0.1368410E-10 -0.2500000E-01  -0.8660253E+00 -0.5000002E+00  0.1690179E-15
 -0.5131768E-01 -0.8888490E-01 -0.2500000E-01  -0.8660253E+00 -0.5000002E+00  0.1690179E-15
 -0.5131768E-01 -0.8888490E-01  0.2500000E-01  -0.8660253E+00 -0.5000002E+00  0.1690179E-15
 -0.1026354E+00  0.1368410E-10  0.2500000E-01  -0.8660253E+00 -0.5000002E+00  0.1690179E-15
           4
 -0.1026354E+00  0.1368410E-10  0.2500000E-01  -0.8660253E+00  0.5000002E+00 -0.3380359E-15
 -0.5131768E-01  0.8888490E-01  0.2500000E-01  -0.8660253E+00  0.5000002E+00 -0.3380359E-15
 -0.5131768E-01  0.8888490E-01 -0.2500000E-01  -0.8660253E+00  0.5000002E+00 -0.3380359E-15
 -0.1026354E+00  0.1368410E-10 -0.2500000E-01  -0.8660253E+00  0.5000002E+00 -0.3380359E-15
           4
 -0.5131768E-01 -0.8888490E-01 -0.2500000E-01  -0.7505913E-31 -0.1000000E+01  0.6760725E-15
  0.5131768E-01 -0.8888490E-01 -0.2500000E-01  -0.7505913E-31 -0.1000000E+01  0.6760725E-15
  0.5131768E-01 -0.8888490E-01  0.2500000E-01  -0.7505913E-31 -0.1000000E+01  0.6760725E-15
 -0.5131768E-01 -0.8888490E-01  0.2500000E-01  -0.7505913E-31 -0.1000000E+01  0.6760725E-15
           6
 -0.1026354E+00  0.1368410E-10 -0.2500000E-01   0.0000000E+00 -0.1188462E-15 -0.1000000E+01
 -0.5131768E-01  0.8888490E-01 -0.2500000E-01   0.0000000E+00 -0.1188462E-15 -0.1000000E+01
  0.5131768E-01  0.8888490E-01 -0.2500000E-01   0.0000000E+00 -0.1188462E-15 -0.1000000E+01
  0.1026354E+00 -0.1368410E-10 -0.2500000E-01   0.0000000E+00 -0.1188462E-15 -0.1000000E+01
  0.5131768E-01 -0.8888490E-01 -0.2500000E-01   0.0000000E+00 -0.1188462E-15 -0.1000000E+01
 -0.5131768E-01 -0.8888490E-01 -0.2500000E-01   0.0000000E+00 -0.1188462E-15 -0.1000000E+01
           6
 -0.5131768E-01 -0.8888490E-01  0.2500000E-01  -0.0000000E+00 -0.4753848E-16  0.1000000E+01
  0.5131768E-01 -0.8888490E-01  0.2500000E-01  -0.0000000E+00 -0.4753848E-16  0.1000000E+01
  0.1026354E+00 -0.1368409E-10  0.2500000E-01  -0.0000000E+00 -0.4753848E-16  0.1000000E+01
  0.5131768E-01  0.8888490E-01  0.2500000E-01  -0.0000000E+00 -0.4753848E-16  0.1000000E+01
 -0.5131768E-01  0.8888490E-01  0.2500000E-01  -0.0000000E+00 -0.4753848E-16  0.1000000E+01
 -0.1026354E+00  0.1368410E-10  0.2500000E-01  -0.0000000E+00 -0.4753848E-16  0.1000000E+01
           4
 -0.5131768E-01  0.8888490E-01  0.2500000E-01  -0.2704290E-15  0.1000000E+01  0.6535529E-15
  0.5131768E-01  0.8888490E-01  0.2500000E-01  -0.2704290E-15  0.1000000E+01  0.6535529E-15
  0.5131768E-01  0.8888490E-01 -0.2500000E-01  -0.2704290E-15  0.1000000E+01  0.6535529E-15
 -0.5131768E-01  0.8888490E-01 -0.2500000E-01  -0.2704290E-15  0.1000000E+01  0.6535529E-15
           4
  0.5131768E-01 -0.8888490E-01 -0.2500000E-01   0.8660253E+00 -0.5000002E+00  0.2403703E-15
  0.1026354E+00 -0.1368410E-10 -0.2500000E-01   0.8660253E+00 -0.5000002E+00  0.2403703E-15
  0.1026354E+00 -0.1368410E-10  0.2500000E-01   0.8660253E+00 -0.5000002E+00  0.2403703E-15
  0.5131768E-01 -0.8888490E-01  0.2500000E-01   0.8660253E+00 -0.5000002E+00  0.2403703E-15
           4
  0.5131768E-01  0.8888490E-01  0.2500000E-01   0.8660253E+00  0.5000002E+00  0.7211109E-15
  0.1026354E+00 -0.1368410E-10  0.2500000E-01   0.8660253E+00  0.5000002E+00  0.7211109E-15
  0.1026354E+00 -0.1368410E-10 -0.2500000E-01   0.8660253E+00  0.5000002E+00  0.7211109E-15
  0.5131768E-01  0.8888490E-01 -0.2500000E-01   0.8660253E+00  0.5000002E+00  0.7211109E-15
 BRILLOUIN-ZONE-CONVCELL_END
 ATOMS
   42    0.0000000000    1.9654167890    3.2062706060    0.0000000000    0.0005371700   -0.0001533500
   42   -1.5456413760    4.6425461050    3.2062706060    0.0004652100   -0.0002685900   -0.0001533500
   42    3.2477420000    1.8750850000    3.2005689500    0.0000000000    0.0000000000   -0.0000388100
   42    1.5456413760    4.6425461050    3.2062706060   -0.0004652100   -0.0002685900   -0.0001533500
   34    1.6259276330    0.9387293970    4.8582630860   -0.0002231800   -0.0001288500   -0.0000496700
    9    0.0000000000    3.7501690000    4.5659156730    0.0000000000   -0.0000000000    0.0005614500
   34    4.8695563670    0.9387293970    4.8582630860    0.0002231800   -0.0001288500   -0.0000496700
   34    3.2477420000    3.7477942050    4.8582630860    0.0000000000    0.0002577000   -0.0000496700
   34    1.5820511930    0.9133973230    1.5913909850   -0.0005015200   -0.0002895500    0.0000591300
   34    0.0000000000    3.7501690000    1.4726373450    0.0000000000    0.0000000000   -0.0000909900
   34    4.9134328070    0.9133973230    1.5913909850    0.0005015200   -0.0002895500    0.0000591300
   34    3.2477420000    3.7984583530    1.5913909850    0.0000000000    0.0005791000    0.0000591300
 FRAMES
1      0.0000000000    0.0000000000    0.0000000000      6.4954846890    0.0000000000    0.0000000000
1      0.0000000000    0.0000000000    0.0000000000     -3.2477423440    5.6252521270    0.0000000000
1      0.0000000000    0.0000000000    0.0000000000      0.0000000000    0.0000000000   20.0000000760
1      0.0000000000    0.0000000000   20.0000000760      6.4954846890    0.0000000000   20.0000000760
1      0.0000000000    0.0000000000   20.0000000760     -3.2477423440    5.6252521270   20.0000000760
1     -3.2477423440    5.6252521270    0.0000000000      3.2477423450    5.6252521270    0.0000000000
1     -3.2477423440    5.6252521270    0.0000000000     -3.2477423440    5.6252521270   20.0000000760
1     -3.2477423440    5.6252521270   20.0000000760      3.2477423450    5.6252521270   20.0000000760
1      6.4954846890    0.0000000000    0.0000000000      3.2477423450    5.6252521270    0.0000000000
1      6.4954846890    0.0000000000    0.0000000000      6.4954846890    0.0000000000   20.0000000760
1      6.4954846890    0.0000000000   20.0000000760      3.2477423450    5.6252521270   20.0000000760
1      3.2477423450    5.6252521270    0.0000000000      3.2477423450    5.6252521270   20.0000000760
